2024-12-15 20:01:18: case.setup starting 
 ---------------------------------------------------
2024-12-15 20:01:19: case.setup success 
 ---------------------------------------------------
2024-12-15 20:34:21: build.clean starting 
 ---------------------------------------------------
2024-12-15 20:34:21: build.clean success 
 ---------------------------------------------------
2024-12-15 20:35:50: case.build starting 
 ---------------------------------------------------
2024-12-15 20:35:52: case.build error 
ERROR: Command /public/home/cuit_lsh/cesm2.2/cime/../components/clm/bld/build-namelist failed rc=255
out=
err=ERROR(Build::Namelist::_parse_next): expect a equal '=' sign or '+=', instead got: .8m
 ---------------------------------------------------
2024-12-15 20:36:46: case.build starting 
 ---------------------------------------------------
2024-12-15 20:36:49: case.build error 
ERROR: /public/home/cuit_lsh/cesm2.2/cime/src/build_scripts/buildlib.gptl FAILED, cat /public/home/cuit_lsh/cesm2.2/result/discrete_scheme_MAQU_2412/bld/gptl.bldlog.241215-203647
 ---------------------------------------------------
2024-12-15 20:37:17: case.build starting 
 ---------------------------------------------------
2024-12-15 20:43:15: case.build success 
 ---------------------------------------------------
2024-12-15 20:43:30: case.run starting 
 ---------------------------------------------------
2024-12-15 20:43:33: model execution starting 
 ---------------------------------------------------
2024-12-15 20:43:39: model execution error 
ERROR: Command: 'mpirun  -np 1  /public/home/cuit_lsh/cesm2.2/result/discrete_scheme_MAQU_2412/bld/cesm.exe   >> cesm.log.$LID 2>&1 ' failed with error '' from dir '/public/home/cuit_lsh/cesm2.2/result/discrete_scheme_MAQU_2412/run'
 ---------------------------------------------------
2024-12-15 20:43:39: case.run error 
ERROR: RUN FAIL: Command 'mpirun  -np 1  /public/home/cuit_lsh/cesm2.2/result/discrete_scheme_MAQU_2412/bld/cesm.exe   >> cesm.log.$LID 2>&1 ' failed
See log file for details: /public/home/cuit_lsh/cesm2.2/result/discrete_scheme_MAQU_2412/run/cesm.log.241215-204330
 ---------------------------------------------------
2024-12-15 20:52:59: build.clean starting 
 ---------------------------------------------------
2024-12-15 20:53:02: build.clean success 
 ---------------------------------------------------
2024-12-15 20:53:08: case.setup starting 
 ---------------------------------------------------
2024-12-15 20:53:08: case.setup success 
 ---------------------------------------------------
2024-12-15 20:53:48: case.build starting 
 ---------------------------------------------------
2024-12-15 20:59:41: case.build success 
 ---------------------------------------------------
2024-12-15 21:00:09: case.run starting 
 ---------------------------------------------------
2024-12-15 21:00:12: model execution starting 
 ---------------------------------------------------
2024-12-15 21:00:18: model execution error 
ERROR: Command: 'mpirun  -np 1  /public/home/cuit_lsh/cesm2.2/result/discrete_scheme_MAQU_2412/bld/cesm.exe   >> cesm.log.$LID 2>&1 ' failed with error '' from dir '/public/home/cuit_lsh/cesm2.2/result/discrete_scheme_MAQU_2412/run'
 ---------------------------------------------------
2024-12-15 21:00:18: case.run error 
ERROR: RUN FAIL: Command 'mpirun  -np 1  /public/home/cuit_lsh/cesm2.2/result/discrete_scheme_MAQU_2412/bld/cesm.exe   >> cesm.log.$LID 2>&1 ' failed
See log file for details: /public/home/cuit_lsh/cesm2.2/result/discrete_scheme_MAQU_2412/run/cesm.log.241215-210009
 ---------------------------------------------------
2024-12-15 21:07:41: build.clean starting 
 ---------------------------------------------------
2024-12-15 21:07:44: build.clean success 
 ---------------------------------------------------
2024-12-15 21:11:13: case.setup starting 
 ---------------------------------------------------
2024-12-15 21:11:14: case.setup success 
 ---------------------------------------------------
2024-12-15 21:11:50: case.setup starting 
 ---------------------------------------------------
2024-12-15 21:11:50: case.setup success 
 ---------------------------------------------------
2024-12-15 21:12:15: case.build starting 
 ---------------------------------------------------
2024-12-15 21:17:23: case.build error 
ERROR: BUILD FAIL: clm.buildlib failed, cat /public/home/cuit_lsh/cesm2.2/result/discrete_scheme_MAQU_2412/bld/lnd.bldlog.241215-211216
 ---------------------------------------------------
2024-12-15 21:25:10: build.clean starting 
 ---------------------------------------------------
2024-12-15 21:25:12: build.clean success 
 ---------------------------------------------------
2024-12-15 21:25:50: case.setup starting 
 ---------------------------------------------------
2024-12-15 21:25:50: case.setup success 
 ---------------------------------------------------
2024-12-15 21:26:03: case.build starting 
 ---------------------------------------------------
2024-12-15 21:32:05: case.build success 
 ---------------------------------------------------
2024-12-15 21:33:05: case.run starting 
 ---------------------------------------------------
2024-12-15 21:33:08: model execution starting 
 ---------------------------------------------------
2024-12-15 21:33:13: model execution error 
ERROR: Command: 'mpirun  -np 1  /public/home/cuit_lsh/cesm2.2/result/discrete_scheme_MAQU_2412/bld/cesm.exe   >> cesm.log.$LID 2>&1 ' failed with error '' from dir '/public/home/cuit_lsh/cesm2.2/result/discrete_scheme_MAQU_2412/run'
 ---------------------------------------------------
2024-12-15 21:33:13: case.run error 
ERROR: RUN FAIL: Command 'mpirun  -np 1  /public/home/cuit_lsh/cesm2.2/result/discrete_scheme_MAQU_2412/bld/cesm.exe   >> cesm.log.$LID 2>&1 ' failed
See log file for details: /public/home/cuit_lsh/cesm2.2/result/discrete_scheme_MAQU_2412/run/cesm.log.241215-213305
 ---------------------------------------------------
2024-12-15 21:37:04: build.clean starting 
 ---------------------------------------------------
2024-12-15 21:37:07: build.clean success 
 ---------------------------------------------------
2024-12-15 21:39:25: case.setup starting 
 ---------------------------------------------------
2024-12-15 21:39:25: case.setup success 
 ---------------------------------------------------
2024-12-15 21:39:53: case.build starting 
 ---------------------------------------------------
2024-12-15 21:45:42: case.build success 
 ---------------------------------------------------
2024-12-15 21:46:17: case.run starting 
 ---------------------------------------------------
2024-12-15 21:46:20: model execution starting 
 ---------------------------------------------------
2024-12-15 21:46:24: model execution error 
ERROR: Command: 'mpirun  -np 1  /public/home/cuit_lsh/cesm2.2/result/discrete_scheme_MAQU_2412/bld/cesm.exe   >> cesm.log.$LID 2>&1 ' failed with error '' from dir '/public/home/cuit_lsh/cesm2.2/result/discrete_scheme_MAQU_2412/run'
 ---------------------------------------------------
2024-12-15 21:46:24: case.run error 
ERROR: RUN FAIL: Command 'mpirun  -np 1  /public/home/cuit_lsh/cesm2.2/result/discrete_scheme_MAQU_2412/bld/cesm.exe   >> cesm.log.$LID 2>&1 ' failed
See log file for details: /public/home/cuit_lsh/cesm2.2/result/discrete_scheme_MAQU_2412/run/cesm.log.241215-214617
 ---------------------------------------------------
2024-12-15 21:54:42: build.clean starting 
 ---------------------------------------------------
2024-12-15 21:54:44: build.clean success 
 ---------------------------------------------------
2024-12-15 21:55:35: case.build starting 
 ---------------------------------------------------
2024-12-15 22:01:25: case.build success 
 ---------------------------------------------------
2024-12-15 22:01:31: case.run starting 
 ---------------------------------------------------
2024-12-15 22:01:34: model execution starting 
 ---------------------------------------------------
2024-12-15 22:01:39: model execution error 
ERROR: Command: 'mpirun  -np 1  /public/home/cuit_lsh/cesm2.2/result/discrete_scheme_MAQU_2412/bld/cesm.exe   >> cesm.log.$LID 2>&1 ' failed with error '' from dir '/public/home/cuit_lsh/cesm2.2/result/discrete_scheme_MAQU_2412/run'
 ---------------------------------------------------
2024-12-15 22:01:39: case.run error 
ERROR: RUN FAIL: Command 'mpirun  -np 1  /public/home/cuit_lsh/cesm2.2/result/discrete_scheme_MAQU_2412/bld/cesm.exe   >> cesm.log.$LID 2>&1 ' failed
See log file for details: /public/home/cuit_lsh/cesm2.2/result/discrete_scheme_MAQU_2412/run/cesm.log.241215-220131
 ---------------------------------------------------
2024-12-15 23:19:15: build.clean starting 
 ---------------------------------------------------
2024-12-15 23:19:18: build.clean success 
 ---------------------------------------------------
2024-12-15 23:23:06: build.clean starting 
 ---------------------------------------------------
2024-12-15 23:23:06: build.clean success 
 ---------------------------------------------------
2024-12-15 23:27:54: case.setup starting 
 ---------------------------------------------------
2024-12-15 23:27:54: case.setup success 
 ---------------------------------------------------
2024-12-15 23:28:41: case.build starting 
 ---------------------------------------------------
2024-12-15 23:34:47: case.build success 
 ---------------------------------------------------
2024-12-15 23:35:02: case.run starting 
 ---------------------------------------------------
2024-12-15 23:35:05: model execution starting 
 ---------------------------------------------------
2024-12-15 23:35:56: model execution success 
 ---------------------------------------------------
2024-12-15 23:35:56: case.run success 
 ---------------------------------------------------
2024-12-18 15:08:24: build.clean starting 
 ---------------------------------------------------
2024-12-18 15:08:27: build.clean success 
 ---------------------------------------------------
2024-12-18 15:08:32: case.setup starting 
 ---------------------------------------------------
2024-12-18 15:08:33: case.setup success 
 ---------------------------------------------------
2024-12-18 15:09:03: case.build starting 
 ---------------------------------------------------
2024-12-18 15:14:19: case.build error 
ERROR: BUILD FAIL: clm.buildlib failed, cat /public/home/cuit_lsh/cesm2.2/result/discrete_scheme_MAQU_2412/bld/lnd.bldlog.241218-150903
 ---------------------------------------------------
2024-12-18 15:16:25: case.build starting 
 ---------------------------------------------------
2024-12-18 15:16:39: case.build error 
ERROR: BUILD FAIL: clm.buildlib failed, cat /public/home/cuit_lsh/cesm2.2/result/discrete_scheme_MAQU_2412/bld/lnd.bldlog.241218-151626
 ---------------------------------------------------
2024-12-18 15:18:54: case.build starting 
 ---------------------------------------------------
2024-12-18 15:20:23: case.build success 
 ---------------------------------------------------
2024-12-18 15:21:51: case.run starting 
 ---------------------------------------------------
2024-12-18 15:21:54: model execution starting 
 ---------------------------------------------------
2024-12-18 15:22:48: model execution success 
 ---------------------------------------------------
2024-12-18 15:22:48: case.run success 
 ---------------------------------------------------
2024-12-18 15:34:06: build.clean starting 
 ---------------------------------------------------
2024-12-18 15:34:09: build.clean success 
 ---------------------------------------------------
2024-12-18 15:53:48: case.setup starting 
 ---------------------------------------------------
2024-12-18 15:53:49: case.setup success 
 ---------------------------------------------------
2024-12-18 15:54:13: case.build starting 
 ---------------------------------------------------
2024-12-18 16:00:22: case.build success 
 ---------------------------------------------------
2024-12-18 16:00:29: case.run starting 
 ---------------------------------------------------
2024-12-18 16:00:32: model execution starting 
 ---------------------------------------------------
2024-12-18 16:01:26: model execution success 
 ---------------------------------------------------
2024-12-18 16:01:26: case.run success 
 ---------------------------------------------------
2024-12-18 16:04:33: build.clean starting 
 ---------------------------------------------------
2024-12-18 16:04:36: build.clean success 
 ---------------------------------------------------
2024-12-18 16:11:30: case.setup starting 
 ---------------------------------------------------
2024-12-18 16:11:31: case.setup success 
 ---------------------------------------------------
2024-12-18 16:11:49: case.build starting 
 ---------------------------------------------------
2024-12-18 16:17:50: case.build success 
 ---------------------------------------------------
2024-12-18 16:17:57: case.run starting 
 ---------------------------------------------------
2024-12-18 16:18:00: model execution starting 
 ---------------------------------------------------
2024-12-18 16:18:53: model execution success 
 ---------------------------------------------------
2024-12-18 16:18:53: case.run success 
 ---------------------------------------------------
2024-12-18 20:28:39: build.clean starting 
 ---------------------------------------------------
2024-12-18 20:28:42: build.clean success 
 ---------------------------------------------------
2024-12-18 20:28:54: case.setup starting 
 ---------------------------------------------------
2024-12-18 20:28:55: case.setup success 
 ---------------------------------------------------
2024-12-18 20:29:53: case.build starting 
 ---------------------------------------------------
2024-12-18 20:33:03: case.build error 
ERROR: BUILD FAIL: clm.buildlib failed, cat /public/home/cuit_lsh/cesm2.2/result/discrete_scheme_MAQU_2412/bld/lnd.bldlog.241218-202953
 ---------------------------------------------------
2024-12-18 20:34:49: case.build starting 
 ---------------------------------------------------
2024-12-18 20:38:21: case.build success 
 ---------------------------------------------------
2024-12-18 20:39:20: case.run starting 
 ---------------------------------------------------
2024-12-18 20:39:22: model execution starting 
 ---------------------------------------------------
2024-12-18 20:40:23: model execution success 
 ---------------------------------------------------
2024-12-18 20:40:23: case.run success 
 ---------------------------------------------------
2024-12-20 14:48:10: build.clean starting 
 ---------------------------------------------------
2024-12-20 14:48:13: build.clean success 
 ---------------------------------------------------
2024-12-20 14:48:34: xmlchange success <command> ./xmlchange STOP_N=365  </command>
 ---------------------------------------------------
2024-12-20 14:49:04: case.setup starting 
 ---------------------------------------------------
2024-12-20 14:49:05: case.setup success 
 ---------------------------------------------------
2024-12-20 14:49:23: case.build starting 
 ---------------------------------------------------
2024-12-20 14:55:29: case.build success 
 ---------------------------------------------------
2024-12-20 15:00:50: case.run starting 
 ---------------------------------------------------
2024-12-20 15:00:54: model execution starting 
 ---------------------------------------------------
2024-12-20 15:01:41: model execution success 
 ---------------------------------------------------
2024-12-20 15:01:41: case.run success 
 ---------------------------------------------------
2024-12-20 15:09:19: build.clean starting 
 ---------------------------------------------------
2024-12-20 15:09:22: build.clean success 
 ---------------------------------------------------
2024-12-20 15:09:35: xmlchange success <command> ./xmlchange STOP_N=486  </command>
 ---------------------------------------------------
2024-12-20 15:10:18: case.setup starting 
 ---------------------------------------------------
2024-12-20 15:10:19: case.setup success 
 ---------------------------------------------------
2024-12-20 15:10:41: case.build starting 
 ---------------------------------------------------
2024-12-20 15:16:55: case.build success 
 ---------------------------------------------------
2024-12-20 15:17:12: case.run starting 
 ---------------------------------------------------
2024-12-20 15:17:15: model execution starting 
 ---------------------------------------------------
2024-12-20 15:18:10: model execution success 
 ---------------------------------------------------
2024-12-20 15:18:10: case.run success 
 ---------------------------------------------------
2024-12-27 12:42:40: build.clean starting 
 ---------------------------------------------------
2024-12-27 12:42:43: build.clean success 
 ---------------------------------------------------
2025-12-01 08:57:32: build.clean starting 
 ---------------------------------------------------
2025-12-01 08:57:32: build.clean success 
 ---------------------------------------------------
2025-12-01 09:04:16: build.clean starting 
 ---------------------------------------------------
2025-12-01 09:04:16: build.clean success 
 ---------------------------------------------------
2025-12-01 09:04:20: case.setup starting 
 ---------------------------------------------------
2025-12-01 09:04:22: case.setup success 
 ---------------------------------------------------
2025-12-01 09:05:03: case.build starting 
 ---------------------------------------------------
2025-12-01 09:12:06: case.build success 
 ---------------------------------------------------
2025-12-01 09:12:35: case.run starting 
 ---------------------------------------------------
2025-12-01 09:12:39: model execution starting 
 ---------------------------------------------------
2025-12-01 09:12:47: model execution error 
ERROR: Command: 'mpirun  -np 1  /public/home/cuit_lsh/cesm2.2/result/discrete_scheme_MAQU_2412/bld/cesm.exe   >> cesm.log.$LID 2>&1 ' failed with error '' from dir '/public/home/cuit_lsh/cesm2.2/result/discrete_scheme_MAQU_2412/run'
 ---------------------------------------------------
2025-12-01 09:12:47: case.run error 
ERROR: RUN FAIL: Command 'mpirun  -np 1  /public/home/cuit_lsh/cesm2.2/result/discrete_scheme_MAQU_2412/bld/cesm.exe   >> cesm.log.$LID 2>&1 ' failed
See log file for details: /public/home/cuit_lsh/cesm2.2/result/discrete_scheme_MAQU_2412/run/cesm.log.251201-091235
 ---------------------------------------------------
2025-12-01 09:13:23: build.clean starting 
 ---------------------------------------------------
2025-12-01 09:13:26: build.clean success 
 ---------------------------------------------------
2025-12-01 09:14:29: case.setup starting 
 ---------------------------------------------------
2025-12-01 09:14:31: case.setup success 
 ---------------------------------------------------
2025-12-01 09:14:47: case.build starting 
 ---------------------------------------------------
2025-12-01 09:21:52: case.build success 
 ---------------------------------------------------
2025-12-01 09:25:25: case.run starting 
 ---------------------------------------------------
2025-12-01 09:25:29: model execution starting 
 ---------------------------------------------------
2025-12-01 09:25:36: model execution error 
ERROR: Command: 'mpirun  -np 1  /public/home/cuit_lsh/cesm2.2/result/discrete_scheme_MAQU_2412/bld/cesm.exe   >> cesm.log.$LID 2>&1 ' failed with error '' from dir '/public/home/cuit_lsh/cesm2.2/result/discrete_scheme_MAQU_2412/run'
 ---------------------------------------------------
2025-12-01 09:25:36: case.run error 
ERROR: RUN FAIL: Command 'mpirun  -np 1  /public/home/cuit_lsh/cesm2.2/result/discrete_scheme_MAQU_2412/bld/cesm.exe   >> cesm.log.$LID 2>&1 ' failed
See log file for details: /public/home/cuit_lsh/cesm2.2/result/discrete_scheme_MAQU_2412/run/cesm.log.251201-092525
 ---------------------------------------------------
2025-12-01 09:28:06: build.clean starting 
 ---------------------------------------------------
2025-12-01 09:28:09: build.clean success 
 ---------------------------------------------------
2025-12-01 09:29:44: case.setup starting 
 ---------------------------------------------------
2025-12-01 09:29:46: case.setup success 
 ---------------------------------------------------
2025-12-01 09:31:31: case.build starting 
 ---------------------------------------------------
2025-12-01 09:38:29: case.build success 
 ---------------------------------------------------
2025-12-01 09:43:52: case.run starting 
 ---------------------------------------------------
2025-12-01 09:43:56: model execution starting 
 ---------------------------------------------------
2025-12-01 09:44:48: model execution success 
 ---------------------------------------------------
2025-12-01 09:44:48: case.run success 
 ---------------------------------------------------
2025-12-01 09:51:53: build.clean starting 
 ---------------------------------------------------
2025-12-01 09:51:57: build.clean success 
 ---------------------------------------------------
2025-12-01 09:52:07: case.setup starting 
 ---------------------------------------------------
2025-12-01 09:52:09: case.setup success 
 ---------------------------------------------------
2025-12-01 09:52:28: case.build starting 
 ---------------------------------------------------
2025-12-01 09:59:44: case.build success 
 ---------------------------------------------------
2025-12-01 10:06:13: case.run starting 
 ---------------------------------------------------
2025-12-01 10:06:17: model execution starting 
 ---------------------------------------------------
2025-12-01 10:07:08: model execution success 
 ---------------------------------------------------
2025-12-01 10:07:08: case.run success 
 ---------------------------------------------------
